##CIF_1.1

data_sm_global
#Used dictionaries
loop_
_audit_conform_dict_name
_audit_conform_dict_version
_audit_conform_dict_location
cif_core.dic 	2.4.2 	.
cif_pd.dic 		1.0.1 	.
cif_sm.dic 		0.1 	'redaktion.landolt-boernstein(at)springer.com'

#About this content and reference
_sm_credits_copyright
;PAULING FILE Multinaries Edition - 2012. SpringerMaterials Release 2014.
http://www.paulingfile.com
Unique LPF ID Number SD0314568
Project Coordinator: Shuichi Iwata
Section-Editors: Karin Cenzual (Crystal Structures), Hiroaki Okamoto (Phase 
Diagrams), Fritz Hulliger (Physical Properties)
(c) Springer & Material Phases Data System (MPDS), Switzerland & National 
Institute for Materials Science (NIMS), Japan 2014.
(Data generated pre-2002: (c) Springer & MPDS & NIMS; 
post-2001: (c) Springer & MPDS)
All Rights Reserved. Version 2014.06.
;

_audit_creation_method
;This data have been compiled from the crystallographic datasheet for 
"BaTiO3 Crystal Structure" 
taken from SpringerMaterials (sm_isp_sd_0314568).
;

_publ_section_references
;Suzuki K.: <i>On the Phase Transition in Barium-Lead Titanate</i>. Journal of the Physical Society of Japan <b>6</b> (1951) 340-344.
;

#Phase classification
_sm_phase_labels				'BaTiO3 rt'
_chemical_name_mineral			''
_sm_chemical_compound_class		'oxide'
_sm_phase_prototype				'BaTiO3 '
_sm_pearson_symbol				'tP5'
_symmetry_Int_Tables_number		99
_sm_sample_details
;sample prepared from BaCO<sub>3</sub>, TiO<sub>2</sub> rutile, 
powder (determination of cell parameters)
;
_sm_measurement_details
;Debye film (determination of cell parameters), 
X-rays, Cu K&#x03b1; (determination of cell parameters), 
<i>T</i> = 293 K (determination of cell parameters)
;
_sm_interpretation_details
;cell parameters determined and structure type assigned; temperature dependence studied
;

data_sm_isp_SD0314568-standardized_unitcell
#Cell Parameters
_cell_length_a					4.019
_cell_length_b					4.019
_cell_length_c					3.985
_cell_angle_alpha				90
_cell_angle_beta				90
_cell_angle_gamma				90
_sm_length_ratio_ab				1.000
_sm_length_ratio_bc				1.009
_sm_length_ratio_ca				0.992
_cell_volume 					64.4
_symmetry_space_group_name_H-M	'P4mm'
_symmetry_Int_Tables_number		99
_cell_formula_units_Z			1
_sm_cell_transformation
;No transformation from published to standardized cell parameters necessary.
;

#Atom Coordinates
loop_
_atom_site_label
_atom_site_type_symbol
_atom_site_Wyckoff_symbol
_sm_site_symmetry
_atom_site_fract_x
_atom_site_fract_y
_atom_site_fract_z
_atom_site_occupancy
_sm_coordination_number
_sm_atomic_environment_type
O1 'O' .2c .2mm. 0.5 0 0.0329 1 ? '?'
Ba1 'Ba' .1b .4mm 0.5 0.5 0.5224 1 ? '?'
Ti1 'Ti' .1a .4mm 0 0 0 1 ? '?'
O2 'O' .1a .4mm 0 0 0.5468 1 ? '?'

_sm_atom_site_transformation
;No transformation from published to standardized cell parameters necessary.
Atom coordinates assigned by editor.
;

data_sm_isp_SD0314568-published_cell
#Cell Parameters
_cell_length_a					4.019
_cell_length_b					4.019
_cell_length_c					3.985
_cell_angle_alpha				90
_cell_angle_beta				90
_cell_angle_gamma				90
_sm_length_ratio_ab				1.000
_sm_length_ratio_bc				1.009
_sm_length_ratio_ca				0.992
_cell_volume 					64.37
_symmetry_space_group_name_H-M	'P4mm'
_symmetry_Int_Tables_number		99
_cell_formula_units_Z			1

#Atom Coordinates
loop_
_atom_site_label
_atom_site_type_symbol
_atom_site_Wyckoff_symbol
_sm_site_symmetry
_atom_site_fract_x
_atom_site_fract_y
_atom_site_fract_z
_atom_site_occupancy
_sm_coordination_number
_sm_atomic_environment_type
? ? ? ? ? ? ? ? ? ?

data_sm_isp_SD0314568-niggli_reduced_cell
#Cell Parameters
_cell_length_a					3.985
_cell_length_b					4.019
_cell_length_c					4.019
_cell_angle_alpha				90
_cell_angle_beta				90
_cell_angle_gamma				90
_sm_length_ratio_ab				0.992
_sm_length_ratio_bc				1.000
_sm_length_ratio_ca				1.009
_cell_volume 					64.37
_symmetry_space_group_name_H-M	''
_symmetry_Int_Tables_number		?
_cell_formula_units_Z			1

#Atom Coordinates
loop_
_atom_site_label
_atom_site_type_symbol
_atom_site_Wyckoff_symbol
_sm_site_symmetry
_atom_site_fract_x
_atom_site_fract_y
_atom_site_fract_z
_atom_site_occupancy
_sm_coordination_number
_sm_atomic_environment_type
? ? ? ? ? ? ? ? ? ?

